12
  optimized by CCSD/pc-2
O          0.008961    2.246924   -0.000000
N         -1.178883    0.300184   -0.000000
C         -0.003482    0.897433   -0.000000
C          1.221629    0.225821    0.000000
C         -1.186562   -1.039692   -0.000000
C          1.189247   -1.152546    0.000000
C         -0.041532   -1.811055    0.000000
H         -0.911116    2.521976   -0.000000
H          2.141918    0.785356    0.000000
H         -2.162612   -1.502190   -0.000000
H          2.111096   -1.713834    0.000000
H         -0.105883   -2.886477    0.000000
