12
 PY OPTIMIZED BY CCSD/pc-2
O       -0.127739    2.271761   -0.000000
N       -1.134174    0.240542   -0.000000
C       -0.010267    1.059369   -0.000000
C        1.242902    0.320228    0.000000
C       -1.114709   -1.125598   -0.000000
C        1.265272   -1.033106    0.000000
C        0.055576   -1.798127    0.000000
H       -2.010922    0.731545   -0.000000
H        2.144427    0.909869    0.000000
H       -2.077415   -1.609361   -0.000000
H        2.213618   -1.549910    0.000000
H        0.067532   -2.873602    0.000000
